╠╪x
mobile_spectrum(А hcis_id
licence_nosubservice_name	area_code	area_name	client_nocarrier_name
service_idsubservice_idtotal_mhz_heldlw_start_mhz
lw_end_mhzdate_of_effectdate_of_expiryup_start_mhz
up_end_mhz"
MS"
MT"
NT"
MS8"
MS9"
MT2"
MT3"
MT5"
MT6"
MT8"
MT9"
NS7"
NT1"
NT4"
NT7"
MS8E"
MS8F"
MS8G"
MS8H"
MS8I"
MS8J"
MS8K"
MS8L"
MS8M"
MS8N"
MS8O"
MS8P"
MS9E"
MS9F"
MS9G"
MS9H"
MS9I"
MS9J"
MS9K"
MS9M"
MS9O"
MS9P"
MT2A"
MT2B"
MT2C"
MT2D"
MT2E"
MT2F"
MT2G"
MT2H"
MT2I"
MT2J"
MT2K"
MT2L"
MT2M"
MT2N"
MT2O"
MT2P"
MT3A"
MT3E"
MT3F"
MT3G"
MT3H"
MT3I"
MT3J"
MT3K"
MT3L"
MT3M"
MT3N"
MT3O"
MT3P"
MT5A"
MT5B"
MT5C"
MT5D"
MT5F"
MT5G"
MT5H"
MT5J"
MT5K"
MT5L"
MT5N"
MT5O"
MT5P"
MT6A"
MT6B"
MT6C"
MT6D"
MT6E"
MT6F"
MT6G"
MT6H"
MT6I"
MT6J"
MT6L"
MT6M"
MT6N"
MT6P"
MT9A"
MT9B"
MT9C"
MT9D"
NS7E"
NS7F"
NS7G"
NS7H"
NS7I"
NS7J"
NS7K"
NS7L"
NS7M"
NS7N"
NS7O"
NS7P"
NT1B"
NT1E"
NT1F"
NT1G"
NT1H"
NT1I"
NT1L"
NT1M"
NT1N"
NT1O"
NT1P"
NT4A"
NT4B"
NT4E"
NT4F"
NT4G"
NT4H"
NT4I"
NT4J"
NT4K"
NT4L"
NT4M"
NT4N"
NT4O"
NT4P"
NT7C"
NT7D"
MS8J8"
MS8J9"
MS9E9"
MS9F9"
MS9G7"
MS9G8"
MS9G9"
MS9L1"
MS9L2"
MS9L3"
MS9L4"
MS9L5"
MS9L7"
MS9L9"
MS9M9"
MT2C2"
MT2D2"
MT2D5"
MT2D6"
MT2D8"
MT2D9"
MT2F3"
MT2F5"
MT2F6"
MT2F7"
MT2F8"
MT2F9"
MT2G1"
MT2G2"
MT2G4"
MT2G6"
MT2G7"
MT2G8"
MT2G9"
MT2H3"
MT2H7"
MT2H8"
MT2H9"
MT2I1"
MT2I4"
MT2I7"
MT2J1"
MT2J3"
MT2J5"
MT2J6"
MT2J8"
MT2J9"
MT2L1"
MT2L2"
MT2L3"
MT2L5"
MT2L6"
MT2L7"
MT2L8"
MT2L9"
MT3B1"
MT3B4"
MT3B5"
MT3B7"
MT3B8"
MT3B9"
MT3D2"
MT3D3"
MT3D6"
MT3D9"
MT5D1"
MT5D2"
MT5D3"
MT5D4"
MT5D5"
MT5D7"
MT5D8"
MT5D9"
MT5E1"
MT5E2"
MT5E3"
MT5E4"
MT5E5"
MT5E6"
MT5E7"
MT5E8"
MT5E9"
MT5I1"
MT5I2"
MT5I3"
MT5I4"
MT5I5"
MT5I6"
MT5I7"
MT5I8"
MT5I9"
MT5L2"
MT5L3"
MT5L6"
MT5L9"
MT5M1"
MT5M2"
MT5M3"
MT5M4"
MT5M5"
MT5M6"
MT5M7"
MT5M8"
MT5M9"
MT6I1"
MT6I2"
MT6I3"
MT6I4"
MT6I5"
MT6I7"
MT6I8"
MT6I9"
MT6J1"
MT6J2"
MT6J3"
MT6J4"
MT6J5"
MT6J6"
MT6J7"
MT6J8"
MT6J9"
MT6K1"
MT6K2"
MT6K3"
MT6K4"
MT6K5"
MT6K6"
MT6K7"
MT6K9"
MT6M1"
MT6M2"
MT6M3"
MT6M4"
MT6M6"
MT6M7"
MT6M8"
MT6M9"
MT6O1"
MT6O3"
MT6O4"
MT6O5"
MT6O6"
MT6O7"
MT6O8"
MT6O9"
MT6P1"
MT6P2"
MT6P3"
MT6P4"
MT6P6"
MT6P7"
MT6P8"
MT9D1"
MT9D2"
MT9D3"
MT9D4"
MT9D6"
NS7G7"
NS7G9"
NS7H7"
NS7H8"
NS7K1"
NS7K3"
NS7K4"
NS7K5"
NS7K6"
NS7L1"
NS7L3"
NS7L4"
NS7L6"
NS7M1"
NS7M2"
NS7M3"
NS7M4"
NS7M6"
NS7M7"
NS7M8"
NS7M9"
NS7O7"
NS7O8"
NS7O9"
NS7P3"
NS7P8"
NS7P9"
NT1A1"
NT1A2"
NT1A3"
NT1A4"
NT1A6"
NT1A7"
NT1A8"
NT1A9"
NT1C1"
NT1C2"
NT1C3"
NT1C4"
NT1C5"
NT1C6"
NT1C7"
NT1C9"
NT1D1"
NT1D2"
NT1D4"
NT1D5"
NT1D6"
NT1D7"
NT1D8"
NT1D9"
NT1G3"
NT1H1"
NT1J1"
NT1J2"
NT1J3"
NT1J5"
NT1J6"
NT1J7"
NT1J8"
NT1J9"
NT1K2"
NT1K3"
NT1K4"
NT1K6"
NT1K7"
NT1K8"
NT1K9"
NT4C1"
NT4C2"
NT4C3"
NT4C4"
NT4C5"
NT4C6"
NT4C7"
NT4C8"
NT4C9"
NT4D1"
NT4D2"
NT4D3"
NT4D4"
NT4D5"
NT4D6"
NT4D7"
NT4D8"
NT4D9"
NT4E1"
NT4E2"
NT4H4"
NT4H5"
NT4H6"
NT4H7"
NT4H8"
NT4K2"
NT4K3"
NT4K5"
NT4K8"
NT4K9"
NT4L4"
NT4L6"
NT4L7"
NT4L8"
NT4M1"
NT4M3"
NT4M4"
NT4M5"
NT4M6"
NT4M7"
NT4M8"
NT4M9"
NT4N1"
NT4N4"
NT4N5"
NT4N7"
NT4N8"
NT4O2"
NT4O3"
NT4O6"
NT4O9"
NT4P1"
NT4P2"
NT4P3"
NT4P5"
NT4P6"
NT4P7"
NT4P8"
NT4P9"
NT7A1"
NT7A2"
NT7A3"
NT7A4"
NT7A5"
NT7A6"
NT7B1"
NT7B2"
NT7B3"
NT7B4"
NT7B5"
NT7B6"
NT7D1"
NT7D2"
NT7D3"
NT7D4"
NT7D5"
NT7D6"
ma001"
ma002"
ma006"
ma010"
ma014"
ma018"
ma019"
ma020"
ma022"
ma026"
Area 1"	
9263429"	
9263433"	
9445340"	
9445341"	
9445342"	
9445343"	
9448619"	
9469858"	
9469862"	
9469864"	
9469871"

10143136"

10143466"

10143562"

10231258"

10232073"

10235466"

10388332"

10391280"

10391286"

10435053"

10914942"

10917462"

10917464"

11210917"

11232380"

11232522"

11286129"

11286131"

11345733"

12287539"

12289656"

12289660"

12290736"

12290740"

12468015"

12468018"

12468165"

12709079"

12709094"

12709106"

12709109"

12709124"

National"
	Area 0002"
	Area 0010"
	Area 0016"
	Area 0022"
	Area 0032"
	Area 0040"
	Area 0045"
	Area 0066"
	Area 0090"
	Area 0366"
	Area 0387"
	Area 0388"
	Area 0399"
	Area 0400"
	Area 0401"
	Area 0456"
	Area 0457"
	Area 0458"
	Area 0466"
	Area 0468"
	Area 0470"

2 GHz Band"

2013-06-18"

2014-10-01"

2015-01-01"

2016-04-18"

2017-05-30"

2017-10-12"

2018-04-01"

2018-05-18"

2020-03-30"

2021-04-27"

2021-07-13"

2021-09-29"

2024-01-19"

2024-02-12"

2024-05-02"

2024-07-01"

2024-09-30"

2024-10-17"

2024-10-22"

2025-09-29"

2026-03-24"

2026-10-28"

2028-06-17"

2029-09-29"

2029-09-30"

2029-10-16"

2029-10-21"

2029-12-31"

2030-07-24"

2030-12-13"

2032-10-11"

2036-04-26"

2044-01-18"

2044-06-30"
Market area"
2.3 GHz Band"
2.5 GHz Band"
3.4 GHz Band"
700 MHz Band"
800 MHz Band"
1800 MHz Band"
AWL - Standard"
NBN CO LIMITED"
Reg_Remote_Aus"
AP_9263524_1635"
AP_9263525_1641"
AP_9445340_2304"
AP_9445341_2305"
AP_9445342_2306"
AP_9445343_2307"
AP_9469858_2735"
AP_9469862_2736"
AP_9469864_2737"
AP_9469871_2739"
AP_9469879_2741"
TELSTRA LIMITED"
850/900 MHz Band"
AP_10143136_3984"
AP_10143466_4119"
AP_10143562_4169"
AP_10231258_4250"
AP_10232073_4368"
AP_10235466_4387"
AP_10391280_4453"
AP_10391286_4455"
AP_10435053_4505"
AP_10914942_4901"
AP_10917462_4908"
AP_10917464_4935"
AP_11210917_0002"
AP_11232380_6066"
AP_11232522_6068"
AP_11286131_6318"
AP_12289656_7116"
AP_12289660_7129"
AP_12349242_7206"
AP_12349243_7213"
AP_12445371_7254"
AP_12445371_7261"
AP_12445371_7267"
AP_12445458_7298"
AP_12445458_7304"
AP_12445458_7305"
AP_12445500_7327"
AP_12445500_7331"
AP_12445500_7332"
AP_12468015_7367"
AP_12468018_7374"
AP_12468165_7378"
AP_12468165_7380"
AP_12643829_7388"
AP_12643829_7393"
AP_12643829_7401"
AP_12709079_0010"
AP_12709079_0016"
AP_12709094_0032"
AP_12709094_0040"
AP_12709094_0066"
AP_12709094_0090"
AP_12709106_0366"
AP_12709106_0387"
AP_12709106_0388"
AP_12709106_0399"
AP_12709106_0400"
AP_12709106_0401"
AP_12709106_0456"
AP_12709106_0457"
AP_12709106_0458"
AP_12709106_0466"
AP_12709106_0468"
AP_12709106_0470"
AP_12709109_0022"
AP_12709124_0045"
Downshift Regional"
20 GHz Defence Band"
30 GHz Defence Band"
Regional  QLD Upper"
2.5 GHz Mid Band Gap"
Merge: ma006 + ma007"
Merge: ma008 + ma009"
TPG INTERNET PTY LTD"
Department of Defence"
MOBILE JV PTY LIMITED"
YANCOAL AUSTRALIA LTD"
CID Licence Co Pty Ltd"
DELTA NETWORKS PTY LTD"
Optus Mobile Pty Limited"
Pivotel Group Pty Limited"
X4000 COMMUNICATIONS PTY LTD"
Regional South East Australia" 
Nine Network Australia Pty Ltd" 
South Queensland (Maryborough)" 
Vodafone Australia Pty Limited"!
Rural North NSW/South QLD Upper""
 CHANNEL SEVEN SYDNEY PTY LIMITED""
 NETWORK TEN (SYDNEY) PTY LIMITED"%
#Australian Broadcasting Corporation"&
$CHALLENGE NETWORKS RESOURCES PTY LTD"&
$Telstra 3G Spectrum Holdings Pty Ltd"*
(Vodafone Hutchison Australia Pty Limited"C
AMerge: Merge: ma010 + ma038 + Merge: ma051 + Merge: ma008 + ma009"E
CSouth Queensland (Maryborough) + Northern New South Wales (Grafton)"a
_Merge: Regional Northern NSW/Southern Queensland + Merge: North Queensland + Central Queensland"b
`Merge: North East and South Central NSW + Merge: South Queensland + North and Central Queensland"i
gMerge: Eastern Seaboard + Merge: Perth + Merge: Hobart + Merge: Darwin + Merge: Adelaide + 850 Regional"o
mMerge: Eastern Seaboard + Merge: Perth + Merge: Hobart + Merge: Darwin + Merge: Adelaide + 900 Lower Regional"o
mMerge: Eastern Seaboard + Merge: Perth + Merge: Hobart + Merge: Darwin + Merge: Adelaide + 900 Upper Regional"  B"  *B" (WE" h]E" " " 
" " " " #" (" -" 2" 7" <" K" U" b" А" Б" Бв┼	" В" ЗФЁ" И" К" К" ЛоI" Н" Р" Рщ╟	" У" У" Ф" Ф" ШЄ" Щ" Щ" Ьр" Ю" в║╟	" г" г" ж" з" и" й" клC" м" мкJ" млC" му" н" н" о" о" ░ъ" ╡" ╢" ╖" ╕" ╣" ║" ╗" ╝" ╝" ╛" ┐" ┐╒╟	" └" └" ─" ─" ┼жJ" ╞" ╞" ╚" ╔" ╔" ╦А╟	" ═" ╬" ╬" ╨" ╨е" ╤" ╥" ╙■╟	" ╘▓E" ╓" ╓" ╪" ╪" ┘" ┘" ┌" █" ▌" ▌" ▀║E" р" р" т" ф" х" ц" ц" ч" ш" ш" шЭ" щ" щТF" ъ" ы" ы" ы╓╚	" ь" ь" э╟" ю" ю" я" Ї" ї" Ў" Ў" ў" °┤C" ∙" ·" ·" √п╞	" ■"  =) ╟ж╬╖ннзє	и
Ы√СЯ"	жЯ D┼  C?) ╥ж╧╢э║зє	и
Ы√СЯ"	ж╞ в┼  б?) )╟ж╬╖ннзє	и
Ы√СЯ"	жМ ж┼  е?* ошмфЇ╛МзЎ	б
М╕ХЭ"	@▓ О▀  Н?* ╘▄и╨╜ннз°	Ц
ЩХТа"	@╝- Р▀  П?* ╘▄и╨╜ннз°	Ц
Ш╢Та"	@╝- Р▀  П?) ╟ж╬╖ннзє	и
Ы√СЯ"	оВ% ╕═  ╖?* ╫▄и╨╜ннз°	Ц
ЩХТа"	@╠/ О▀  Н?* ╫▄и╨╜ннз°	Ц
Ш╢Та"	@╠/ О▀  Н=) ╟ж╬╖ннзє	и
Ы√СЯ"	■	Я D╫  C=) щмцЎ╟ВзЎ	г
╘МХЭ"	■	Я D╫  C?) ▀и╒·ннз°	Ч
тШТа"	оЯ И═  З?) ▀и╒·ннз°	б
╢╒Та"	оЯ И═  З?) ▄и╥∙ннз°	Ц
Ш╢Та"	оЯ И═  ЗE/ ╧л┐Ж╚Бзь	Ю
ЁЗ╧фЗЩ"	оЯ И═  ЗE/ ╬В╛Д╚Бзя	Ы
├╩АЙИб"	оЯ И═  ЗE/ ═В╜ДЦНзя	Ь
╩╤ЙТИб"	оЯ И═  З?) ти╪∙э║з°	е
╒ХТа"	оЯ И═  ЗE/ ╒л─Тэ║зь	б
═Ё▓╧КЩ"	оЯ И═  ЗE/ ╨л└Рл√зь	Ь
РЧчёЖЩ"	оЯ И═  ЗE/ ╠В╝Д┼Ззя	Ы
╤╓ТЩИб"	оЯ И═  ЗE/ ╤л┴ЖюОзь	Ы
ЗРфчЗЩ"	оЯ И═  З>) ╟ж╬╖ннзє	и
Ы√СЯ"	■	[ в╫  б>) ╟ж╬╖ннзє	и
Ы√СЯ"	╓[ в╫  б>) щмцЎ╟ВзЎ	г
╘МХЭ"	╓[ в╫  б=) ╟ж╬╖ннзє	и
Ы√СЯ"	╓Я D╫  C=) щмцЎ╟ВзЎ	г
╘МХЭ"	╓Я D╫  C=) шмтё╛МзЎ	г
М╜ХЭ"	оЯ D╫  C=) ╟ж╬╖ннзє	и
Ы√СЯ"	оЯ D╫  C=) шмтё╛МзЎ	г
М╜ХЭ"	ЖЯ D╫  C=) чмрю┤ГзЎ	г
╜щУЪ"	ЖЯ D╫  C>* КщмцЎ╟ВзЎ	г
╘МХЭ"	ЖЯ Dё  C>* ЛщмцЎ╟ВзЎ	г
╘МХЭ"	▐ Я Dё  C=) шмтё╛МзЎ	г
М╜ХЭ"	▐ Я D╫  C>* МщмцЎ╟ВзЎ	г
╘МХЭ"	╨"Я Dё  C>* НщмцЎ╟ВзЎ	г
╘МХЭ"	─$Я Dє  C>* ОщмцЎ╟ВзЎ	г
╘МХЭ"	╢&Я Dё  C=) шмтё╛МзЎ	г
М╜ХЭ"	╢&Я D╫  C>) !щмцЎ╟ВзЎ	г
╘МХЭ"	╢&[ в╫  б?* ПщмцЎ╟ВзЎ	г
╘МХЭ"	к([ Кє  Й=) a▀и╒·ннз°	Ч
тШТа"	ц1Я D╫  C=) a▀и╒·ннз°	б
╢╒Та"	ц1Я D╫  C=) aщмь№╟ВзЎ	г
Є░ХЭ"	ц1Я D╫  C=) aти╪∙э║з°	е
╒ХТа"	ц1Я D╫  C=) aуи▌╕э║з°	г
С┴Пг"	ц1Я D╫  C=) щмцЎ╟ВзЎ	г
╘МХЭ"	О,Я D╫  C=) b▀и╒·ннз°	Ч
тШТа"	╛7Я D╫  C=) b▀и╒·ннз°	б
╢╒Та"	╛7Я D╫  C=) bщмь№╟ВзЎ	г
Є░ХЭ"	╛7Я D╫  C=) bти╪∙э║з°	е
╒ХТа"	╛7Я D╫  C=) bуи▌╕э║з°	г
С┴Пг"	╛7Я D╫  C>) f▀и╙╜ннз°	в
╢▄Та"	╛7[ в╫  б>) f▀и╙╜ннз°	Ч
тШТа"	╛7[ в╫  б>) fри╠ИЖБз°	Ю
СоПг"	╛7[ в╫  б>) fщмы√╟ВзЎ	г
╜щХЭ"	╛7[ в╫  б>) fти╓╗э║з°	д
▄ХТа"	╛7[ в╫  б>) fуи▐╣э║з°	Я
о┴Пг"	╛7[ в╫  б>* ещмь№╟ВзЎ	г
Є░ХЭ"	▓9Я Dє  C>) g▀и╙╜ннз°	в
╢▄Та"	Ш=[ в┘  б>) g▀и╙╜ннз°	Ч
тШТа"	Ш=[ в┘  б>) gри╠ИЖБз°	Ю
СоПг"	Ш=[ в┘  б>) gти╓╗э║з°	д
▄ХТа"	Ш=[ в┘  б>) gуи▐╣э║з°	Я
о┴Пг"	Ш=[ в┘  б?* йщмы√╟ВзЎ	г
╜щХЭ"	▓9[ Кє  Й>* жщмю■╟ВзЎ	г
Є░ХЭ"	Ш=Я Dє  C=) c▀и╒·ннз°	Ч
тШТа"	Ш=Я D┘  C=) c▀и╒·ннз°	б
╢╒Та"	Ш=Я D┘  C=) cти╪∙э║з°	е
╒ХТа"	Ш=Я D┘  C=) cуи▌╕э║з°	г
С┴Пг"	Ш=Я D┘  C>* зщмю■╟ВзЎ	г
Є░ХЭ"	К?Я Dё  C>) ╟ж╬╖ннзє	и
Ы√СЯ"	ж[ в┼  б@* ИщмцЎ╟ВзЎ	г
╘МХЭ"	К║ Мё  Л?) %╥ж╧╢э║зє	и
Ы√СЯ"	жш д┼  г@* ЙщмцЎ╟ВзЎ	г
╘МХЭ"	■	║ Мє  Л?) ╟ж╬╖ннзє	и
Ы√СЯ"	╓╞ в╫  б?) щмцЎ╟ВзЎ	г
╘МХЭ"	╓╞ в╫  б?) ╟ж╬╖ннзє	и
Ы√СЯ"	■	╞ в╫  б?) щмцЎ╟ВзЎ	г
╘МХЭ"	■	╞ в╫  б@* Чщмщ∙╟ВзЎ	б
сПХЭ"	тш Мё  Л?) (╟ж╬╖ннзє	и
Ы√СЯ"	ош д╫  г?) &╟ж╬╖ннзє	и
Ы√СЯ"	■	ш д╫  г?) &щмш°╟ВзЎ	б
сПХЭ"	■	ш д╫  г@* ащмш°╟ВзЎ	б
сПХЭ"	Шж Мё  Л?) -╟ж╬╖ннзє	и
Ы√СЯ"	ж▓ и┼  з?) -щмш°╟ВзЎ	б
сПХЭ"	ж▓ и┼  з?* пшмфЇ╛МзЎ	б
М╕ХЭ"	@└ М▀  Л?* ░шмфЇ╛МзЎ	б
М╕ХЭ"	@╠ О▀  Н?) 1шмфЇ╛МзЎ	б
М╕ХЭ"	ж┌ и┼  з?) 1╟ж╬╖ннзє	и
Ы√СЯ"	ж┌ и┼  з?) 1щмш°╟ВзЎ	б
сПХЭ"	ж┌ и┼  з@* ▒щмш°╟ВзЎ	б
сПХЭ"	Ш▓ Оё  Н?) .╟ж╬╖ннзє	и
Ы√СЯ"	■	▓ и╫  з@* Эщмш°╟ВзЎ	б
сПХЭ"	■	М Мє  Л@* дщмш°╟ВзЎ	б
сПХЭ"	тМ Мё  Л@* Ющмш°╟ВзЎ	б
сПХЭ"	КШ Оё  Н?) *╟ж╬╖ннзє	и
Ы√СЯ"	■	М ж╫  е@* Ящмш°╟ВзЎ	б
сПХЭ"	■	Ш Оє  Н@* вщмш°╟ВзЎ	б
сПХЭ"	■	ж Мє  Л@* гщмш°╟ВзЎ	б
сПХЭ"	ЁМ Мё  Л@* ещмш°╟ВзЎ	б
сПХЭ"	ЁШ Оё  Н?) '╟ж╬╖ннзє	и
Ы√СЯ"	╓ш д╫  г@* жщмш°╟ВзЎ	б
сПХЭ"	╓Ш Оє  Н@* ищмш°╟ВзЎ	б
сПХЭ"	тж Мё  Л@* лщмш°╟ВзЎ	б
сПХЭ"	╚ж Мё  Л@* бщмш°╟ВзЎ	б
сПХЭ"	Кж Мё  Л@* ▓щмш°╟ВзЎ	б
сПХЭ"	■	▓ Оє  Н@* ┤щмш°╟ВзЎ	б
сПХЭ"	■	└ Мє  Л?) +╟ж╬╖ннзє	и
Ы√СЯ"	╓М ж╫  е@* зщмш°╟ВзЎ	б
сПХЭ"	Ёж Мё  Л@* │щмш°╟ВзЎ	б
сПХЭ"	К└ Мё  Л@* ╢щмш°╟ВзЎ	б
сПХЭ"	■	╠ Оє  Н@* ╡щмш°╟ВзЎ	б
сПХЭ"	К╠ Оё  Н@* йщмш°╟ВзЎ	б
сПХЭ"	╓ж Мє  Л?) /╟ж╬╖ннзє	и
Ы√СЯ"	╓▓ и╫  з?) /щмш°╟ВзЎ	б
сПХЭ"	╓▓ и╫  з>) шмтё╛МзЎ	г
М╜ХЭ"	о[ в╫  б>) ╟ж╬╖ннзє	и
Ы√СЯ"	о[ в╫  б>) шмтё╛МзЎ	г
М╜ХЭ"	Ж[ в╫  б>) чмрю┤ГзЎ	г
╜щУЪ"	Ж[ в╫  б?) "шмтё╛МзЎ	г
М╜ХЭ"	Ж╞ в╫  б?) "чмрю┤ГзЎ	г
╜щУЪ"	Ж╞ в╫  б?) шмтё╛МзЎ	г
М╜ХЭ"	о╞ в╫  б?) ╟ж╬╖ннзє	и
Ы√СЯ"	о╞ в╫  б@* Шщмъ·╟ВзЎ	б
сПХЭ"	╝ш Мє  Л@* Щщмъ·╟ВзЎ	б
сПХЭ"	╝Ї Мє  Л@* Ъщмъ·╟ВзЎ	б
сПХЭ"	оЇ Мё  Л@* Ыщмъ·╟ВзЎ	б
сПХЭ"	╝А Мє  Л?) ╟ж╬╖ннзє	и
Ы√СЯ"	О,Я И▀  З?) ▀и╒·ннз°	Ч
тШТа"	О,Я И▀  З?) ▀и╒·ннз°	б
╢╒Та"	О,Я И▀  З?) ▄и╥∙ннз°	Ц
Ш╢Та"	О,Я И▀  ЗE/ ╧л┐Ж╚Бзь	Ю
ЁЗ╧фЗЩ"	О,Я И▀  ЗE/ ╬В╛Д╚Бзя	Ы
├╩АЙИб"	О,Я И▀  ЗE/ ═В╜ДЦНзя	Ь
╩╤ЙТИб"	О,Я И▀  З?) ти╪∙э║з°	е
╒ХТа"	О,Я И▀  ЗE/ ╒л─Тэ║зь	б
═Ё▓╧КЩ"	О,Я И▀  ЗE/ ╨л└Рл√зь	Ь
РЧчёЖЩ"	О,Я И▀  ЗE/ ╠В╝Д┼Ззя	Ы
╤╓ТЩИб"	О,Я И▀  ЗE/ ╤л┴ЖюОзь	Ы
ЗРфчЗЩ"	О,Я И▀  З@* Цщмчў╟ВзЎ	г
╘МХЭ"	Ж▄	 Мё  Л?) 5щмы√╟ВзЎ	г
╜щХЭ"	Жш д╫  г@* ┐щмы√╟ВзЎ	г
╜щХЭ"	°ш Мё  Л@* └щмы√╟ВзЎ	г
╜щХЭ"	°Ї Мё  Л@* ┴щмы√╟ВзЎ	г
╜щХЭ"	ьЇ Мє  Л@* кщмъ·╟ВзЎ	б
сПХЭ"	оМ Мё  Л@* нщмш°╟ВзЎ	б
сПХЭ"	ож Мё  Л@* Ьщмъ·╟ВзЎ	б
сПХЭ"	оА Мё  Л?) ,╟ж╬╖ннзє	и
Ы√СЯ"	оМ ж╫  е@* ╖щмш°╟ВзЎ	б
сПХЭ"	╚▓ Оё  Н@* ╕щмш°╟ВзЎ	б
сПХЭ"	╝▓ Оє  Н@* мщмш°╟ВзЎ	б
сПХЭ"	╝ж Мє  Л@* ║щмш°╟ВзЎ	б
сПХЭ"	╝└ Мє  Л@* ╝щмш°╟ВзЎ	б
сПХЭ"	╚╠ Оё  Н@* ╜щмш°╟ВзЎ	б
сПХЭ"	╝╠ Оє  Н?) 0╟ж╬╖ннзє	и
Ы√СЯ"	о▓ и╫  з?) 4╟ж╬╖ннзє	и
Ы√СЯ"	о┌ и╫  з?) 4щмш°╟ВзЎ	б
сПХЭ"	о┌ и╫  з@* ╣щмш°╟ВзЎ	б
сПХЭ"	о▓ Оё  Н?) 6щмы√╟ВзЎ	г
╜щХЭ"	ЖМ ж╫  е@* ╗щмш°╟ВзЎ	б
сПХЭ"	о└ Мё  Л@* ╛щмш°╟ВзЎ	б
сПХЭ"	о╠ Оё  Н@* ┬щмы√╟ВзЎ	г
╜щХЭ"	°А Мё  Л@* ├щмы√╟ВзЎ	г
╜щХЭ"	ьА Мє  Л?) :щмы√╟ВзЎ	г
╜щХЭ"	Ж▓ и╫  з?) ;щмы√╟ВзЎ	г
╜щХЭ"	▐ ▓ и╫  з?) BшмфЇ╛МзЎ	б
М╕ХЭ"	жВ% м┼  л?) B╪и╟Сх¤з°	б
─ыЛа"	жВ% м┼  л?) B▀и╙╜ннз°	в
╢▄Та"	жВ% м┼  л?) B▀и╙╜ннз°	Ч
тШТа"	жВ% м┼  л?) B▄и╥∙ннз°	Ц
Ш╢Та"	жВ% м┼  л?) B╫и╞С╚Бз°	а
ыСЛа"	жВ% м┼  л?) Bри╠ИЖБз°	Ю
СоПг"	жВ% м┼  л?) Bщмш°╟ВзЎ	б
сПХЭ"	жВ% м┼  л?) Bти╓╗э║з°	д
▄ХТа"	жВ% м┼  л?) B╓и┼Сэ║з°	г
Х─Ла"	жВ% м┼  л?) Bуи▐╣э║з°	Я
о┴Пг"	жВ% м┼  л?) 2╟ж╬╖ннзє	и
Ы√СЯ"	■	┌ и╫  з?) 2щмш°╟ВзЎ	б
сПХЭ"	■	┌ и╫  з?* ╤шмфЇ╛МзЎ	б
М╕ХЭ"	@о+ О▀  Н?* ╤╪и╟Сх¤з°	б
─ыЛа"	@о+ О▀  Н?* ╤▀и╙╜ннз°	в
╢▄Та"	@о+ О▀  Н?* ╤▀и╙╜ннз°	Ч
тШТа"	@о+ О▀  Н?* ╤▄и╥∙ннз°	Ц
Ш╢Та"	@о+ О▀  Н?* ╤╫и╞С╚Бз°	а
ыСЛа"	@о+ О▀  Н?* ╤ри╠ИЖБз°	Ю
СоПг"	@о+ О▀  Н?* ╤ти╓╗э║з°	д
▄ХТа"	@о+ О▀  Н?* ╤╓и┼Сэ║з°	г
Х─Ла"	@о+ О▀  Н?* ╤уи▐╣э║з°	Я
о┴Пг"	@о+ О▀  Н@* ╥шмфЇ╛МзЎ	б
М╕ХЭ"	▓о+ Оё  Н@* ╥╪и╟Сх¤з°	б
─ыЛа"	▓о+ Оё  Н@* ╥▀и╙╜ннз°	в
╢▄Та"	▓о+ Оё  Н@* ╥▀и╙╜ннз°	Ч
тШТа"	▓о+ Оё  Н@* ╥▄и╥∙ннз°	Ц
Ш╢Та"	▓о+ Оё  Н@* ╥╫и╞С╚Бз°	а
ыСЛа"	▓о+ Оё  Н@* ╥ри╠ИЖБз°	Ю
СоПг"	▓о+ Оё  Н@* ╥ти╓╗э║з°	д
▄ХТа"	▓о+ Оё  Н@* ╥╓и┼Сэ║з°	г
Х─Ла"	▓о+ Оё  Н@* ╥уи▐╣э║з°	Я
о┴Пг"	▓о+ Оё  Н@* ╓шмфЇ╛МзЎ	б
М╕ХЭ"	ж╝- Рє  П@* ╓╪и╟Сх¤з°	б
─ыЛа"	ж╝- Рє  П@* ╓▀и╙╜ннз°	в
╢▄Та"	ж╝- Рє  П@* ╓▀и╙╜ннз°	Ч
тШТа"	ж╝- Рє  П@* ╓▄и╥∙ннз°	Ц
Ш╢Та"	ж╝- Рє  П@* ╓╫и╞С╚Бз°	а
ыСЛа"	ж╝- Рє  П@* ╓ри╠ИЖБз°	Ю
СоПг"	ж╝- Рє  П@* ╓ти╓╗э║з°	д
▄ХТа"	ж╝- Рє  П@* ╓╓и┼Сэ║з°	г
Х─Ла"	ж╝- Рє  П@* ╓уи▐╣э║з°	Я
о┴Пг"	ж╝- Рє  П@* ╒шмфЇ╛МзЎ	б
М╕ХЭ"	▓╝- Рё  П@* ╒╪и╟Сх¤з°	б
─ыЛа"	▓╝- Рё  П@* ╒▀и╙╜ннз°	в
╢▄Та"	▓╝- Рё  П@* ╒▀и╙╜ннз°	Ч
тШТа"	▓╝- Рё  П@* ╒▄и╥∙ннз°	Ц
Ш╢Та"	▓╝- Рё  П@* ╒╫и╞С╚Бз°	а
ыСЛа"	▓╝- Рё  П@* ╒ри╠ИЖБз°	Ю
СоПг"	▓╝- Рё  П@* ╒ти╓╗э║з°	д
▄ХТа"	▓╝- Рё  П@* ╒╓и┼Сэ║з°	г
Х─Ла"	▓╝- Рё  П@* ╒уи▐╣э║з°	Я
о┴Пг"	▓╝- Рё  П@* ╪шмфЇ╛МзЎ	б
М╕ХЭ"	▓╠/ Оё  Н@* ╪╪и╟Сх¤з°	б
─ыЛа"	▓╠/ Оё  Н@* ╪▀и╙╜ннз°	в
╢▄Та"	▓╠/ Оё  Н@* ╪▀и╙╜ннз°	Ч
тШТа"	▓╠/ Оё  Н@* ╪▄и╥∙ннз°	Ц
Ш╢Та"	▓╠/ Оё  Н@* ╪╫и╞С╚Бз°	а
ыСЛа"	▓╠/ Оё  Н@* ╪ри╠ИЖБз°	Ю
СоПг"	▓╠/ Оё  Н@* ╪ти╓╗э║з°	д
▄ХТа"	▓╠/ Оё  Н@* ╪╓и┼Сэ║з°	г
Х─Ла"	▓╠/ Оё  Н@* ╪уи▐╣э║з°	Я
о┴Пг"	▓╠/ Оё  Н@* ╙шмфЇ╛МзЎ	б
М╕ХЭ"	жо+ Оє  Н@* ╙╪и╟Сх¤з°	б
─ыЛа"	жо+ Оє  Н@* ╙▀и╙╜ннз°	в
╢▄Та"	жо+ Оє  Н@* ╙▀и╙╜ннз°	Ч
тШТа"	жо+ Оє  Н@* ╙▄и╥∙ннз°	Ц
Ш╢Та"	жо+ Оє  Н@* ╙╫и╞С╚Бз°	а
ыСЛа"	жо+ Оє  Н@* ╙ри╠ИЖБз°	Ю
СоПг"	жо+ Оє  Н@* ╙щмш°╟ВзЎ	б
сПХЭ"	жо+ Оє  Н@* ╙ти╓╗э║з°	д
▄ХТа"	жо+ Оє  Н@* ╙╓и┼Сэ║з°	г
Х─Ла"	жо+ Оє  Н@* ╙уи▐╣э║з°	Я
о┴Пг"	жо+ Оє  Н?) 3╟ж╬╖ннзє	и
Ы√СЯ"	╓┌ и╫  з?) 3щмш°╟ВзЎ	б
сПХЭ"	╓┌ и╫  з?) EшмфЇ╛МзЎ	б
М╕ХЭ"	оВ% м╫  л?) E╪и╟Сх¤з°	б
─ыЛа"	оВ% м╫  л?) E▀и╙╜ннз°	в
╢▄Та"	оВ% м╫  л?) E▀и╙╜ннз°	Ч
тШТа"	оВ% м╫  л?) E▄и╥∙ннз°	Ц
Ш╢Та"	оВ% м╫  л?) E╫и╞С╚Бз°	а
ыСЛа"	оВ% м╫  л?) Eри╠ИЖБз°	Ю
СоПг"	оВ% м╫  л?) Eти╓╗э║з°	д
▄ХТа"	оВ% м╫  л?) E╓и┼Сэ║з°	г
Х─Ла"	оВ% м╫  л?) Eуи▐╣э║з°	Я
о┴Пг"	оВ% м╫  л?) DшмфЇ╛МзЎ	б
М╕ХЭ"	╓В% м╫  л?) D╪и╟Сх¤з°	б
─ыЛа"	╓В% м╫  л?) D▀и╙╜ннз°	в
╢▄Та"	╓В% м╫  л?) D▀и╙╜ннз°	Ч
тШТа"	╓В% м╫  л?) D▄и╥∙ннз°	Ц
Ш╢Та"	╓В% м╫  л?) D╫и╞С╚Бз°	а
ыСЛа"	╓В% м╫  л?) Dри╠ИЖБз°	Ю
СоПг"	╓В% м╫  л?) Dщмш°╟ВзЎ	б
сПХЭ"	╓В% м╫  л?) Dти╓╗э║з°	д
▄ХТа"	╓В% м╫  л?) D╓и┼Сэ║з°	г
Х─Ла"	╓В% м╫  л?) Dуи▐╣э║з°	Я
о┴Пг"	╓В% м╫  л@* ╠щмш°╟ВзЎ	б
сПХЭ"	╚Т' Оё  Н?) CшмфЇ╛МзЎ	б
М╕ХЭ"	■	В% м╫  л?) C╪и╟Сх¤з°	б
─ыЛа"	■	В% м╫  л?) C▀и╙╜ннз°	в
╢▄Та"	■	В% м╫  л?) C▀и╙╜ннз°	Ч
тШТа"	■	В% м╫  л?) C▄и╥∙ннз°	Ц
Ш╢Та"	■	В% м╫  л?) C╫и╞С╚Бз°	а
ыСЛа"	■	В% м╫  л?) Cри╠ИЖБз°	Ю
СоПг"	■	В% м╫  л?) Cщмш°╟ВзЎ	б
сПХЭ"	■	В% м╫  л?) Cти╓╗э║з°	д
▄ХТа"	■	В% м╫  л?) C╓и┼Сэ║з°	г
Х─Ла"	■	В% м╫  л?) Cуи▐╣э║з°	Я
о┴Пг"	■	В% м╫  л?) GшмфЇ╛МзЎ	б
М╕ХЭ"	╓о+ м╫  л?) G╪и╟Сх¤з°	б
─ыЛа"	╓о+ м╫  л?) G▀и╙╜ннз°	в
╢▄Та"	╓о+ м╫  л?) G▀и╙╜ннз°	Ч
тШТа"	╓о+ м╫  л?) G▄и╥∙ннз°	Ц
Ш╢Та"	╓о+ м╫  л?) G╫и╞С╚Бз°	а
ыСЛа"	╓о+ м╫  л?) Gри╠ИЖБз°	Ю
СоПг"	╓о+ м╫  л?) Gщмш°╟ВзЎ	б
сПХЭ"	╓о+ м╫  л?) Gти╓╗э║з°	д
▄ХТа"	╓о+ м╫  л?) G╓и┼Сэ║з°	г
Х─Ла"	╓о+ м╫  л?) Gуи▐╣э║з°	Я
о┴Пг"	╓о+ м╫  л?) FшмфЇ╛МзЎ	б
М╕ХЭ"	■	о+ м╫  л?) F╪и╟Сх¤з°	б
─ыЛа"	■	о+ м╫  л?) F▀и╙╜ннз°	в
╢▄Та"	■	о+ м╫  л?) F▀и╙╜ннз°	Ч
тШТа"	■	о+ м╫  л?) F▄и╥∙ннз°	Ц
Ш╢Та"	■	о+ м╫  л?) F╫и╞С╚Бз°	а
ыСЛа"	■	о+ м╫  л?) Fри╠ИЖБз°	Ю
СоПг"	■	о+ м╫  л?) Fщмш°╟ВзЎ	б
сПХЭ"	■	о+ м╫  л?) Fти╓╗э║з°	д
▄ХТа"	■	о+ м╫  л?) F╓и┼Сэ║з°	г
Х─Ла"	■	о+ м╫  л?) Fуи▐╣э║з°	Я
о┴Пг"	■	о+ м╫  л?) HшмфЇ╛МзЎ	б
М╕ХЭ"	оо+ м╫  л?) H╪и╟Сх¤з°	б
─ыЛа"	оо+ м╫  л?) H▀и╙╜ннз°	в
╢▄Та"	оо+ м╫  л?) H▀и╙╜ннз°	Ч
тШТа"	оо+ м╫  л?) H▄и╥∙ннз°	Ц
Ш╢Та"	оо+ м╫  л?) H╫и╞С╚Бз°	а
ыСЛа"	оо+ м╫  л?) Hри╠ИЖБз°	Ю
СоПг"	оо+ м╫  л?) Hщмш°╟ВзЎ	б
сПХЭ"	оо+ м╫  л?) Hти╓╗э║з°	д
▄ХТа"	оо+ м╫  л?) H╓и┼Сэ║з°	г
Х─Ла"	оо+ м╫  л?) Hуи▐╣э║з°	Я
о┴Пг"	оо+ м╫  л@* █▄и╨╜ннз°	Ц
ЩХТа"	▓┌1 Рё  П@* █▄и╨╜ннз°	Ц
Ш╢Та"	▓┌1 Рё  П?* ┌▄и╨╜ннз°	Ц
ЩХТа"	@┌1 Р▀  П?* ┌▄и╨╜ннз°	Ц
Ш╢Та"	@┌1 Р▀  П@* ┘шмфЇ╛МзЎ	б
М╕ХЭ"	ж╠/ Оє  Н@* ┘╪и╟Сх¤з°	б
─ыЛа"	ж╠/ Оє  Н@* ┘▀и╙╜ннз°	в
╢▄Та"	ж╠/ Оє  Н@* ┘▀и╙╜ннз°	Ч
тШТа"	ж╠/ Оє  Н@* ┘▄и╥∙ннз°	Ц
Ш╢Та"	ж╠/ Оє  Н@* ┘╫и╞С╚Бз°	а
ыСЛа"	ж╠/ Оє  Н@* ┘ри╠ИЖБз°	Ю
СоПг"	ж╠/ Оє  Н@* ┘ти╓╗э║з°	д